<?xml version="1.0" encoding="UTF-8"?>
<routes>
    <vType id="vehicle" accel="2.6" decel="4.5" sigma="0.5" length="5" minGap="2.5" maxSpeed="14" color="1,1,0"/>
    
    <route id="route_0" edges="A0A1 A1B1 B1B0 B0A0"/>
    <route id="route_1" edges="B1B0 B0A0 A0A1 A1B1"/>
    
    <flow id="flow0" type="vehicle" route="route_0" begin="0" period="2" number="50"/>
    <flow id="flow1" type="vehicle" route="route_1" begin="0" period="2" number="50"/>
</routes>
