<?xml version="1.0" encoding="UTF-8"?>
<additional>
    <poly id="building1" type="building" color="255,0,0" fill="1" layer="1" shape="100,100 200,100 200,200 100,200 100,100"/>
    <poly id="building2" type="building" color="255,0,0" fill="1" layer="1" shape="300,300 400,300 400,400 300,400 300,300"/>
</additional>