<?xml version="1.0" encoding="UTF-8"?>
<configuration xmlns:xsi="http://www.w3.org/2001/XMLSchema-instance" xsi:noNamespaceSchemaLocation="http://sumo.dlr.de/xsd/sumoConfiguration.xsd">
    <input>
    <net-file value="vanet.net.xml"/>
    <route-files value="vanet.rou.xml"/>
    <additional-files value="vanet.add.xml"/>
    </input>
    <time>
        <begin value="0"/>
        <end value="1000"/>
        <step-length value="0.1"/>
    </time>
    <processing>
        <time-to-teleport value="-1"/>
        <collision.action value="warn"/>
        <collision.check-junctions value="true"/>
    </processing>
    <report>
        <verbose value="true"/>
        <no-step-log value="true"/>
    </report>
    <gui_only>
        <start value="true"/>
        <quit-on-end value="true"/>
        <delay value="100"/>
    </gui_only>
</configuration>
