<?xml version="1.0" encoding="UTF-8"?>
<additional>
    <!-- Traffic Light Programs -->
    <tlLogic id="0" type="static" programID="0" offset="0">
        <phase duration="31" state="GGggrrrrGGggrrrr"/>
        <phase duration="4"  state="yyggrrrryyggrrrr"/>
        <phase duration="6"  state="rrGGrrrrrrGGrrrr"/>
        <phase duration="4"  state="rryyrrrrrryyrrrr"/>
        <phase duration="31" state="rrrrGGggrrrrGGgg"/>
        <phase duration="4"  state="rrrryyggrrrryygg"/>
        <phase duration="6"  state="rrrrrrGGrrrrrrGG"/>
        <phase duration="4"  state="rrrrrryyrrrrrryy"/>
    </tlLogic>
    
    <!-- Vehicle Detectors -->
    <laneAreaDetector id="d0" lane="0_0" pos="0" length="200" freq="10" file="detector_output.xml"/>
</additional>